test/fixtures/powermodels/case5_strg/sol_dc_opf.json
{
  "termination_status": "OPTIMAL",
  "objective": 16840.425769266523,
  "solution": {
    "multiinfrastructure": false,
    "multinetwork": true,
    "nw": {
      "1": {
        "baseMVA": 100.0,
        "branch": {
          "4": {
            "qf": null,
            "qt": null,
            "pt": 0.5878892813981595,
            "pf": -0.5878892813981595
          },
          "1": {
            "qf": null,
            "qt": null,
            "pt": -2.4121107186018405,
            "pf": 2.4121107186018405
          },
          "5": {
            "qf": null,
            "qt": null,
            "pt": 0.1413381983824484,
            "pf": -0.1413381983824484
          },
          "2": {
            "qf": null,
            "qt": null,
            "pt": -1.8826763967648974,
            "pf": 1.8826763967648974
          },
          "6": {
            "qf": null,
            "qt": null,
            "pt": 0.1413381983824484,
            "pf": -0.1413381983824484
          },
          "7": {
            "qf": null,
            "qt": null,
            "pt": 2.4,
            "pf": -2.4
          },
          "3": {
            "qf": null,
            "qt": null,
            "pt": 2.1947871153667355,
            "pf": -2.1947871153667355
          }
        },
        "gen": {
          "4": {
            "qg": null,
            "pg": 0.0,
            "pg_cost": 0.0
          },
          "1": {
            "qg": null,
            "pg": 0.4,
            "pg_cost": 560.0
          },
          "5": {
            "qg": null,
            "pg": 4.354787115366736,
            "pg_cost": 4354.787115366736
          },
          "2": {
            "qg": null,
            "pg": 1.7,
            "pg_cost": 2550.0
          },
          "3": {
            "qg": null,
            "pg": 3.125212884633263,
            "pg_cost": 9375.638653899789
          }
        },
        "storage": {
          "1": {
            "qs": null,
            "sd_on": 1.0,
            "qsc": -0.5,
            "sc_on": 0.0,
            "se": -0.0,
            "sc": 0.0,
            "sd": 0.18,
            "ps": -0.18
          },
          "2": {
            "qs": null,
            "sd_on": 1.0,
            "qsc": -0.5,
            "sc_on": 0.0,
            "se": -0.0,
            "sc": 0.0,
            "sd": 0.24,
            "ps": -0.24
          }
        },
        "bus": {
          "4": {
            "va": 0.0,
            "vm": 1.0
          },
          "1": {
            "va": 0.05780569608626941,
            "vm": 1.0
          },
          "10": {
            "va": 0.0719928,
            "vm": 1.0
          },
          "2": {
            "va": -0.010652418218369429,
            "vm": 1.0
          },
          "3": {
            "va": -0.004239721936878305,
            "vm": 1.0
          }
        }
      }
    },
    "per_unit": true
  }
}

